input/IEEE118busPsse30.raw
0, 100.0/RAWD VER 30 EXPORT BY Xingpeng.Li (xplipower@gmail.com)
 04/19/2014 UW ARCHIVE.     Under supervision of Dr.Hedman at ASU    
 IEEE 118-BUS TEST SYSTEM.  Data provided by Pranav
       1,'Bus 1',   0.00,1,          0.000,          0.000,   1,   1,   0.956926,   -12.975385,   1
       2,'Bus 2',   0.00,1,          0.000,          0.000,   1,   1,   0.976446,   -12.079451,   1
       3,'Bus 3',   0.00,1,          0.000,          0.000,   1,   1,   0.967603,   -12.236211,   1
       4,'Bus 4',   0.00,2,          0.000,          0.000,   1,   1,   0.998079,   -8.93305,   1
       5,'Bus 5',   0.00,2,          0.000,          0.000,   1,   1,   0.995619,   -8.940727,   1
       6,'Bus 6',   0.00,2,          0.000,          0.000,   1,   1,   0.995227,   -9.573445,   1
       7,'Bus 7',   0.00,1,          0.000,          0.000,   1,   1,   0.995647,   -10.221805,   1
       8,'Bus 8',   0.00,1,          0.000,          0.000,   1,   1,   1.00003,   -7.1969867,   1
       9,'Bus 9',   0.00,1,          0.000,          0.000,   1,   1,   0.998044,   -3.6962628,   1
       10,'Bus 10',   0.00,3,          0.000,          0.000,   1,   1,   1.0,   0.0,   1
       11,'Bus 11',   0.00,1,          0.000,          0.000,   1,   1,   0.99262,   -10.918122,   1
       12,'Bus 12',   0.00,2,          0.000,          0.000,   1,   1,   0.998269,   -10.9247675,   1
       13,'Bus 13',   0.00,1,          0.000,          0.000,   1,   1,   0.99654,   -12.457374,   1
       14,'Bus 14',   0.00,1,          0.000,          0.000,   1,   1,   1.01595,   -12.012702,   1
       15,'Bus 15',   0.00,2,          0.000,          0.000,   1,   1,   1.07561,   -13.400692,   1
       16,'Bus 16',   0.00,1,          0.000,          0.000,   1,   1,   1.00924,   -11.535484,   1
       17,'Bus 17',   0.00,2,          0.000,          0.000,   1,   1,   1.06232,   -10.607979,   1
       18,'Bus 18',   0.00,1,          0.000,          0.000,   1,   1,   1.04645,   -12.745171,   1
       19,'Bus 19',   0.00,2,          0.000,          0.000,   1,   1,   1.05488,   -13.512533,   1
       20,'Bus 20',   0.00,1,          0.000,          0.000,   1,   1,   1.01751,   -12.963984,   1
       21,'Bus 21',   0.00,1,          0.000,          0.000,   1,   1,   0.996412,   -11.709663,   1
       22,'Bus 22',   0.00,1,          0.000,          0.000,   1,   1,   0.984016,   -9.531619,   1
       23,'Bus 23',   0.00,1,          0.000,          0.000,   1,   1,   0.979403,   -5.052833,   1
       24,'Bus 24',   0.00,1,          0.000,          0.000,   1,   1,   0.968767,   -7.752469,   1
       25,'Bus 25',   0.00,2,          0.000,          0.000,   1,   1,   0.985603,   1.9441447,   1
       26,'Bus 26',   0.00,2,          0.000,          0.000,   1,   1,   1.00678,   1.288314,   1
       27,'Bus 27',   0.00,1,          0.000,          0.000,   1,   1,   0.994056,   -4.8804755,   1
       28,'Bus 28',   0.00,1,          0.000,          0.000,   1,   1,   1.01662,   -3.7086675,   1
       29,'Bus 29',   0.00,1,          0.000,          0.000,   1,   1,   1.05354,   -1.748812,   1
       30,'Bus 30',   0.00,1,          0.000,          0.000,   1,   1,   1.0216,   -8.894948,   1
       31,'Bus 31',   0.00,2,          0.000,          0.000,   1,   1,   1.07168,   -0.7531823,   1
       32,'Bus 32',   0.00,1,          0.000,          0.000,   1,   1,   1.00307,   -5.3435063,   1
       33,'Bus 33',   0.00,1,          0.000,          0.000,   1,   1,   1.03507,   -16.366898,   1
       34,'Bus 34',   0.00,1,          0.000,          0.000,   1,   1,   1.0068,   -18.650078,   1
       35,'Bus 35',   0.00,1,          0.000,          0.000,   1,   1,   1.00199,   -19.142477,   1
       36,'Bus 36',   0.00,1,          0.000,          0.000,   1,   1,   1.00129,   -19.116924,   1
       37,'Bus 37',   0.00,1,          0.000,          0.000,   1,   1,   1.01358,   -18.396372,   1
       38,'Bus 38',   0.00,1,          0.000,          0.000,   1,   1,   1.01737,   -14.213778,   1
       39,'Bus 39',   0.00,1,          0.000,          0.000,   1,   1,   1.02348,   -23.2173,   1
       40,'Bus 40',   0.00,2,          0.000,          0.000,   1,   1,   1.04306,   -25.1217,   1
       41,'Bus 41',   0.00,1,          0.000,          0.000,   1,   1,   1.02022,   -25.654322,   1
       42,'Bus 42',   0.00,1,          0.000,          0.000,   1,   1,   0.98507,   -24.585926,   1
       43,'Bus 43',   0.00,1,          0.000,          0.000,   1,   1,   0.960691,   -19.081514,   1
       44,'Bus 44',   0.00,1,          0.000,          0.000,   1,   1,   0.923143,   -17.18153,   1
       45,'Bus 45',   0.00,1,          0.000,          0.000,   1,   1,   0.921598,   -15.603258,   1
       46,'Bus 46',   0.00,2,          0.000,          0.000,   1,   1,   0.940849,   -10.099077,   1
       47,'Bus 47',   0.00,1,          0.000,          0.000,   1,   1,   0.97503,   -13.669466,   1
       48,'Bus 48',   0.00,1,          0.000,          0.000,   1,   1,   0.963976,   -13.922829,   1
       49,'Bus 49',   0.00,2,          0.000,          0.000,   1,   1,   0.979746,   -14.433333,   1
       50,'Bus 50',   0.00,1,          0.000,          0.000,   1,   1,   0.971378,   -16.952919,   1
       51,'Bus 51',   0.00,1,          0.000,          0.000,   1,   1,   0.957365,   -20.055832,   1
       52,'Bus 52',   0.00,1,          0.000,          0.000,   1,   1,   0.952229,   -21.123825,   1
       53,'Bus 53',   0.00,1,          0.000,          0.000,   1,   1,   0.95961,   -22.350988,   1
       54,'Bus 54',   0.00,2,          0.000,          0.000,   1,   1,   0.986052,   -21.694664,   1
       55,'Bus 55',   0.00,1,          0.000,          0.000,   1,   1,   0.983495,   -22.139969,   1
       56,'Bus 56',   0.00,1,          0.000,          0.000,   1,   1,   0.983965,   -21.887636,   1
       57,'Bus 57',   0.00,1,          0.000,          0.000,   1,   1,   0.973631,   -20.204857,   1
       58,'Bus 58',   0.00,1,          0.000,          0.000,   1,   1,   0.965486,   -21.125717,   1
       59,'Bus 59',   0.00,2,          0.000,          0.000,   1,   1,   1.0552,   -19.775883,   1
       60,'Bus 60',   0.00,1,          0.000,          0.000,   1,   1,   1.03601,   -18.423817,   1
       61,'Bus 61',   0.00,1,          0.000,          0.000,   1,   1,   1.03867,   -17.880365,   1
       62,'Bus 62',   0.00,1,          0.000,          0.000,   1,   1,   1.0278,   -17.830519,   1
       63,'Bus 63',   0.00,1,          0.000,          0.000,   1,   1,   1.04625,   -17.602139,   1
       64,'Bus 64',   0.00,1,          0.000,          0.000,   1,   1,   1.044,   -16.443903,   1
       65,'Bus 65',   0.00,2,          0.000,          0.000,   1,   1,   1.05177,   -13.134094,   1
       66,'Bus 66',   0.00,2,          0.000,          0.000,   1,   1,   1.02581,   -11.3653145,   1
       67,'Bus 67',   0.00,1,          0.000,          0.000,   1,   1,   1.01797,   -15.161049,   1
       68,'Bus 68',   0.00,1,          0.000,          0.000,   1,   1,   1.05133,   -14.173212,   1
       69,'Bus 69',   0.00,2,          0.000,          0.000,   1,   1,   1.06244,   -12.25598,   1
       70,'Bus 70',   0.00,1,          0.000,          0.000,   1,   1,   0.975759,   -16.678013,   1
       71,'Bus 71',   0.00,1,          0.000,          0.000,   1,   1,   0.973319,   -16.15811,   1
       72,'Bus 72',   0.00,1,          0.000,          0.000,   1,   1,   0.965527,   -12.834895,   1
       73,'Bus 73',   0.00,1,          0.000,          0.000,   1,   1,   0.972781,   -16.322952,   1
       74,'Bus 74',   0.00,1,          0.000,          0.000,   1,   1,   0.949815,   -19.573975,   1
       75,'Bus 75',   0.00,1,          0.000,          0.000,   1,   1,   0.962642,   -18.952486,   1
       76,'Bus 76',   0.00,1,          0.000,          0.000,   1,   1,   0.934086,   -21.66424,   1
       77,'Bus 77',   0.00,1,          0.000,          0.000,   1,   1,   1.00293,   -19.025938,   1
       78,'Bus 78',   0.00,1,          0.000,          0.000,   1,   1,   0.999439,   -19.308695,   1
       79,'Bus 79',   0.00,1,          0.000,          0.000,   1,   1,   1.00254,   -19.26847,   1
       80,'Bus 80',   0.00,2,          0.000,          0.000,   1,   1,   1.04031,   -17.918524,   1
       81,'Bus 81',   0.00,1,          0.000,          0.000,   1,   1,   1.04558,   -15.476292,   1
       82,'Bus 82',   0.00,1,          0.000,          0.000,   1,   1,   0.985728,   -22.304176,   1
       83,'Bus 83',   0.00,1,          0.000,          0.000,   1,   1,   0.989698,   -22.988863,   1
       84,'Bus 84',   0.00,1,          0.000,          0.000,   1,   1,   1.00195,   -23.633097,   1
       85,'Bus 85',   0.00,1,          0.000,          0.000,   1,   1,   1.01573,   -23.659107,   1
       86,'Bus 86',   0.00,1,          0.000,          0.000,   1,   1,   1.03439,   -21.14491,   1
       87,'Bus 87',   0.00,2,          0.000,          0.000,   1,   1,   1.08793,   -15.018269,   1
       88,'Bus 88',   0.00,1,          0.000,          0.000,   1,   1,   1.03493,   -24.647575,   1
       89,'Bus 89',   0.00,2,          0.000,          0.000,   1,   1,   1.06194,   -23.597515,   1
       90,'Bus 90',   0.00,2,          0.000,          0.000,   1,   1,   1.04446,   -25.495956,   1
       91,'Bus 91',   0.00,1,          0.000,          0.000,   1,   1,   1.03773,   -25.127428,   1
       92,'Bus 92',   0.00,1,          0.000,          0.000,   1,   1,   1.03151,   -23.878553,   1
       93,'Bus 93',   0.00,1,          0.000,          0.000,   1,   1,   1.01163,   -23.229563,   1
       94,'Bus 94',   0.00,1,          0.000,          0.000,   1,   1,   1.00239,   -22.244589,   1
       95,'Bus 95',   0.00,1,          0.000,          0.000,   1,   1,   0.988483,   -22.570774,   1
       96,'Bus 96',   0.00,1,          0.000,          0.000,   1,   1,   0.995353,   -21.948828,   1
       97,'Bus 97',   0.00,1,          0.000,          0.000,   1,   1,   1.01121,   -20.27854,   1
       98,'Bus 98',   0.00,1,          0.000,          0.000,   1,   1,   1.02346,   -19.804533,   1
       99,'Bus 99',   0.00,1,          0.000,          0.000,   1,   1,   1.02262,   -20.613548,   1
       100,'Bus 100',   0.00,2,          0.000,          0.000,   1,   1,   1.02356,   -19.824928,   1
       101,'Bus 101',   0.00,1,          0.000,          0.000,   1,   1,   1.01113,   -22.371674,   1
       102,'Bus 102',   0.00,1,          0.000,          0.000,   1,   1,   1.02315,   -23.471865,   1
       103,'Bus 103',   0.00,2,          0.000,          0.000,   1,   1,   1.02094,   -18.10829,   1
       104,'Bus 104',   0.00,1,          0.000,          0.000,   1,   1,   0.97384,   -21.312273,   1
       105,'Bus 105',   0.00,1,          0.000,          0.000,   1,   1,   0.967642,   -21.68034,   1
       106,'Bus 106',   0.00,1,          0.000,          0.000,   1,   1,   0.960027,   -22.84522,   1
       107,'Bus 107',   0.00,1,          0.000,          0.000,   1,   1,   0.936849,   -24.96282,   1
       108,'Bus 108',   0.00,1,          0.000,          0.000,   1,   1,   0.98593,   -20.37153,   1
       109,'Bus 109',   0.00,1,          0.000,          0.000,   1,   1,   0.994007,   -19.820631,   1
       110,'Bus 110',   0.00,1,          0.000,          0.000,   1,   1,   1.02049,   -18.115107,   1
       111,'Bus 111',   0.00,2,          0.000,          0.000,   1,   1,   1.07412,   -13.948956,   1
       112,'Bus 112',   0.00,1,          0.000,          0.000,   1,   1,   0.994433,   -20.39153,   1
       113,'Bus 113',   0.00,1,          0.000,          0.000,   1,   1,   1.05374,   -10.042984,   1
       114,'Bus 114',   0.00,1,          0.000,          0.000,   1,   1,   0.993809,   -5.6680474,   1
       115,'Bus 115',   0.00,1,          0.000,          0.000,   1,   1,   0.992737,   -5.6794147,   1
       116,'Bus 116',   0.00,1,          0.000,          0.000,   1,   1,   1.051,   -14.383259,   1
       117,'Bus 117',   0.00,1,          0.000,          0.000,   1,   1,   0.979787,   -12.410963,   1
       118,'Bus 118',   0.00,1,          0.000,          0.000,   1,   1,   0.942187,   -20.670559,   1
0 / END OF BUS DATA, BEGIN LOAD DATA
       1,'BL',1,   1,   1,    51.0,    27.000002,     0.000,     0.000,     0.000,     0.000,   1
       2,'BL',1,   1,   1,    20.0,    9.0,     0.000,     0.000,     0.000,     0.000,   1
       3,'BL',1,   1,   1,    39.0,    10.0,     0.000,     0.000,     0.000,     0.000,   1
       4,'BL',1,   1,   1,    39.0,    12.0,     0.000,     0.000,     0.000,     0.000,   1
       6,'BL',1,   1,   1,    52.0,    22.0,     0.000,     0.000,     0.000,     0.000,   1
       7,'BL',1,   1,   1,    19.0,    2.0,     0.000,     0.000,     0.000,     0.000,   1
       11,'BL',1,   1,   1,    70.0,    23.0,     0.000,     0.000,     0.000,     0.000,   1
       12,'BL',1,   1,   1,    47.0,    10.0,     0.000,     0.000,     0.000,     0.000,   1
       13,'BL',1,   1,   1,    34.0,    16.0,     0.000,     0.000,     0.000,     0.000,   1
       14,'BL',1,   1,   1,    14.0,    1.0,     0.000,     0.000,     0.000,     0.000,   1
       15,'BL',1,   1,   1,    90.0,    30.000002,     0.000,     0.000,     0.000,     0.000,   1
       16,'BL',1,   1,   1,    25.0,    10.0,     0.000,     0.000,     0.000,     0.000,   1
       17,'BL',1,   1,   1,    11.0,    3.0,     0.000,     0.000,     0.000,     0.000,   1
       18,'BL',1,   1,   1,    60.000004,    34.0,     0.000,     0.000,     0.000,     0.000,   1
       19,'BL',1,   1,   1,    45.0,    25.0,     0.000,     0.000,     0.000,     0.000,   1
       20,'BL',1,   1,   1,    18.0,    3.0,     0.000,     0.000,     0.000,     0.000,   1
       21,'BL',1,   1,   1,    14.0,    8.0,     0.000,     0.000,     0.000,     0.000,   1
       22,'BL',1,   1,   1,    10.0,    5.0,     0.000,     0.000,     0.000,     0.000,   1
       23,'BL',1,   1,   1,    7.0,    3.0,     0.000,     0.000,     0.000,     0.000,   1
       27,'BL',1,   1,   1,    71.0,    13.0,     0.000,     0.000,     0.000,     0.000,   1
       28,'BL',1,   1,   1,    17.0,    7.0,     0.000,     0.000,     0.000,     0.000,   1
       29,'BL',1,   1,   1,    24.0,    4.0,     0.000,     0.000,     0.000,     0.000,   1
       31,'BL',1,   1,   1,    43.0,    27.000002,     0.000,     0.000,     0.000,     0.000,   1
       32,'BL',1,   1,   1,    58.999996,    23.0,     0.000,     0.000,     0.000,     0.000,   1
       33,'BL',1,   1,   1,    23.0,    9.0,     0.000,     0.000,     0.000,     0.000,   1
       34,'BL',1,   1,   1,    58.999996,    26.0,     0.000,     0.000,     0.000,     0.000,   1
       35,'BL',1,   1,   1,    33.0,    9.0,     0.000,     0.000,     0.000,     0.000,   1
       36,'BL',1,   1,   1,    31.0,    17.0,     0.000,     0.000,     0.000,     0.000,   1
       39,'BL',1,   1,   1,    27.000002,    11.0,     0.000,     0.000,     0.000,     0.000,   1
       40,'BL',1,   1,   1,    66.0,    23.0,     0.000,     0.000,     0.000,     0.000,   1
       41,'BL',1,   1,   1,    37.0,    10.0,     0.000,     0.000,     0.000,     0.000,   1
       42,'BL',1,   1,   1,    96.0,    23.0,     0.000,     0.000,     0.000,     0.000,   1
       43,'BL',1,   1,   1,    18.0,    7.0,     0.000,     0.000,     0.000,     0.000,   1
       44,'BL',1,   1,   1,    16.0,    8.0,     0.000,     0.000,     0.000,     0.000,   1
       45,'BL',1,   1,   1,    52.999996,    22.0,     0.000,     0.000,     0.000,     0.000,   1
       46,'BL',1,   1,   1,    28.0,    10.0,     0.000,     0.000,     0.000,     0.000,   1
       48,'BL',1,   1,   1,    20.0,    11.0,     0.000,     0.000,     0.000,     0.000,   1
       49,'BL',1,   1,   1,    87.0,    30.000002,     0.000,     0.000,     0.000,     0.000,   1
       50,'BL',1,   1,   1,    17.0,    4.0,     0.000,     0.000,     0.000,     0.000,   1
       51,'BL',1,   1,   1,    17.0,    8.0,     0.000,     0.000,     0.000,     0.000,   1
       52,'BL',1,   1,   1,    18.0,    5.0,     0.000,     0.000,     0.000,     0.000,   1
       53,'BL',1,   1,   1,    23.0,    11.0,     0.000,     0.000,     0.000,     0.000,   1
       54,'BL',1,   1,   1,    113.0,    32.0,     0.000,     0.000,     0.000,     0.000,   1
       55,'BL',1,   1,   1,    63.0,    22.0,     0.000,     0.000,     0.000,     0.000,   1
       56,'BL',1,   1,   1,    84.0,    18.0,     0.000,     0.000,     0.000,     0.000,   1
       57,'BL',1,   1,   1,    12.0,    3.0,     0.000,     0.000,     0.000,     0.000,   1
       58,'BL',1,   1,   1,    12.0,    3.0,     0.000,     0.000,     0.000,     0.000,   1
       59,'BL',1,   1,   1,    187.0,    113.0,     0.000,     0.000,     0.000,     0.000,   1
       60,'BL',1,   1,   1,    78.0,    3.0,     0.000,     0.000,     0.000,     0.000,   1
       62,'BL',1,   1,   1,    77.0,    14.0,     0.000,     0.000,     0.000,     0.000,   1
       66,'BL',1,   1,   1,    39.0,    18.0,     0.000,     0.000,     0.000,     0.000,   1
       67,'BL',1,   1,   1,    28.0,    7.0,     0.000,     0.000,     0.000,     0.000,   1
       70,'BL',1,   1,   1,    66.0,    20.0,     0.000,     0.000,     0.000,     0.000,   1
       74,'BL',1,   1,   1,    68.0,    27.000002,     0.000,     0.000,     0.000,     0.000,   1
       75,'BL',1,   1,   1,    47.0,    11.0,     0.000,     0.000,     0.000,     0.000,   1
       76,'BL',1,   1,   1,    68.0,    36.0,     0.000,     0.000,     0.000,     0.000,   1
       77,'BL',1,   1,   1,    61.0,    28.0,     0.000,     0.000,     0.000,     0.000,   1
       78,'BL',1,   1,   1,    50.0,    26.0,     0.000,     0.000,     0.000,     0.000,   1
       79,'BL',1,   1,   1,    39.0,    32.0,     0.000,     0.000,     0.000,     0.000,   1
       80,'BL',1,   1,   1,    100.0,    26.0,     0.000,     0.000,     0.000,     0.000,   1
       82,'BL',1,   1,   1,    54.000004,    27.000002,     0.000,     0.000,     0.000,     0.000,   1
       83,'BL',1,   1,   1,    20.0,    10.0,     0.000,     0.000,     0.000,     0.000,   1
       84,'BL',1,   1,   1,    11.0,    7.0,     0.000,     0.000,     0.000,     0.000,   1
       85,'BL',1,   1,   1,    24.0,    15.000001,     0.000,     0.000,     0.000,     0.000,   1
       86,'BL',1,   1,   1,    21.0,    10.0,     0.000,     0.000,     0.000,     0.000,   1
       88,'BL',1,   1,   1,    48.0,    10.0,     0.000,     0.000,     0.000,     0.000,   1
       90,'BL',1,   1,   1,    150.0,    42.0,     0.000,     0.000,     0.000,     0.000,   1
       92,'BL',1,   1,   1,    65.0,    10.0,     0.000,     0.000,     0.000,     0.000,   1
       93,'BL',1,   1,   1,    12.0,    7.0,     0.000,     0.000,     0.000,     0.000,   1
       94,'BL',1,   1,   1,    30.000002,    16.0,     0.000,     0.000,     0.000,     0.000,   1
       95,'BL',1,   1,   1,    42.0,    31.0,     0.000,     0.000,     0.000,     0.000,   1
       96,'BL',1,   1,   1,    38.0,    15.000001,     0.000,     0.000,     0.000,     0.000,   1
       97,'BL',1,   1,   1,    15.000001,    9.0,     0.000,     0.000,     0.000,     0.000,   1
       98,'BL',1,   1,   1,    34.0,    8.0,     0.000,     0.000,     0.000,     0.000,   1
       100,'BL',1,   1,   1,    37.0,    48.0,     0.000,     0.000,     0.000,     0.000,   1
       101,'BL',1,   1,   1,    22.0,    15.000001,     0.000,     0.000,     0.000,     0.000,   1
       102,'BL',1,   1,   1,    5.0,    3.0,     0.000,     0.000,     0.000,     0.000,   1
       104,'BL',1,   1,   1,    38.0,    25.0,     0.000,     0.000,     0.000,     0.000,   1
       105,'BL',1,   1,   1,    31.0,    26.0,     0.000,     0.000,     0.000,     0.000,   1
       106,'BL',1,   1,   1,    43.0,    16.0,     0.000,     0.000,     0.000,     0.000,   1
       107,'BL',1,   1,   1,    50.0,    12.0,     0.000,     0.000,     0.000,     0.000,   1
       108,'BL',1,   1,   1,    2.0,    1.0,     0.000,     0.000,     0.000,     0.000,   1
       109,'BL',1,   1,   1,    8.0,    3.0,     0.000,     0.000,     0.000,     0.000,   1
       112,'BL',1,   1,   1,    68.0,    13.0,     0.000,     0.000,     0.000,     0.000,   1
       114,'BL',1,   1,   1,    8.0,    3.0,     0.000,     0.000,     0.000,     0.000,   1
       115,'BL',1,   1,   1,    22.0,    7.0,     0.000,     0.000,     0.000,     0.000,   1
       117,'BL',1,   1,   1,    20.0,    8.0,     0.000,     0.000,     0.000,     0.000,   1
       118,'BL',1,   1,   1,    33.0,    15.000001,     0.000,     0.000,     0.000,     0.000,   1
0 / END OF LOAD DATA, BEGIN GENERATOR DATA
       4,'1', 95.1666, 35.159298, 60.000004, 0.0,1.00000,     0,     100.00,     0.00000,     0.00000,     0.00000,     0.00000,     1.00000,1,     100.00,     100.0,     25.0,     1,     1.0000,,,,,,,
       6,'1', 83.5956, 12.7086, 60.000004, 0.0,1.00000,     0,     100.00,     0.00000,     0.00000,     0.00000,     0.00000,     1.00000,1,     100.00,     100.0,     25.0,     1,     1.0000,,,,,,,
       10,'1', 169.035, 5.28809, 200.0, -50.0,1.00000,     0,     100.00,     0.00000,     0.00000,     0.00000,     0.00000,     1.00000,1,     100.00,     400.0,     100.0,     1,     1.0000,,,,,,,
       10,'2', 92.5039, -8.7528105, 80.0, -50.0,1.00000,     0,     100.00,     0.00000,     0.00000,     0.00000,     0.00000,     1.00000,1,     100.00,     155.0,     54.25,     1,     1.0000,,,,,,,
       12,'1', 126.96199, 53.2819, 80.0, 0.0,1.00000,     0,     100.00,     0.00000,     0.00000,     0.00000,     0.00000,     1.00000,1,     100.00,     197.0,     68.95,     1,     1.0000,,,,,,,
       15,'1', 56.4923, 49.3461, 60.000004, 0.0,1.00000,     0,     100.00,     0.00000,     0.00000,     0.00000,     0.00000,     1.00000,1,     100.00,     100.0,     25.0,     1,     1.0000,,,,,,,
       19,'1', 39.7939, 43.2721, 60.000004, 0.0,1.00000,     0,     100.00,     0.00000,     0.00000,     0.00000,     0.00000,     1.00000,1,     100.00,     100.0,     25.0,     1,     1.0000,,,,,,,
       25,'1', 117.888, -41.4127, 80.0, -50.0,1.00000,     0,     100.00,     0.00000,     0.00000,     0.00000,     0.00000,     1.00000,1,     100.00,     155.0,     54.25,     1,     1.0000,,,,,,,
       25,'2', 117.888, -41.4127, 80.0, -50.0,1.00000,     0,     100.00,     0.00000,     0.00000,     0.00000,     0.00000,     1.00000,1,     100.00,     155.0,     54.25,     1,     1.0000,,,,,,,
       25,'3', 7.32866, 2.52685, 6.0, 0.0,1.00000,     0,     100.00,     0.00000,     0.00000,     0.00000,     0.00000,     1.00000,1,     100.00,     12.0,     2.4,     1,     1.0000,,,,,,,
       26,'1', 81.1482, 16.8, 80.0, 0.0,1.00000,     0,     100.00,     0.00000,     0.00000,     0.00000,     0.00000,     1.00000,1,     100.00,     197.0,     68.95,     1,     1.0000,,,,,,,
       26,'2', 81.1482, 16.8, 80.0, 0.0,1.00000,     0,     100.00,     0.00000,     0.00000,     0.00000,     0.00000,     1.00000,1,     100.00,     197.0,     68.95,     1,     1.0000,,,,,,,
       26,'3', 17.739899, 4.46, 10.0, 0.0,1.00000,     0,     100.00,     0.00000,     0.00000,     0.00000,     0.00000,     1.00000,1,     100.00,     20.0,     15.800001,     1,     1.0000,,,,,,,
       87,'1', 27.7859, 12.7352, 60.000004, 0.0,1.00000,     0,     100.00,     0.00000,     0.00000,     0.00000,     0.00000,     1.00000,1,     100.00,     100.0,     25.0,     1,     1.0000,,,,,,,
       87,'2', 27.7859, 12.7352, 60.000004, 0.0,1.00000,     0,     100.00,     0.00000,     0.00000,     0.00000,     0.00000,     1.00000,1,     100.00,     100.0,     25.0,     1,     1.0000,,,,,,,
       46,'1', 149.613, -44.6787, 80.0, -50.0,1.00000,     0,     100.00,     0.00000,     0.00000,     0.00000,     0.00000,     1.00000,1,     100.00,     155.0,     54.25,     1,     1.0000,,,,,,,
       49,'1', 58.5964, -9.38173, 30.000002, -25.0,1.00000,     0,     100.00,     0.00000,     0.00000,     0.00000,     0.00000,     1.00000,1,     100.00,     76.0,     15.2,     1,     1.0000,,,,,,,
       49,'2', 58.5964, -9.38173, 30.000002, -25.0,1.00000,     0,     100.00,     0.00000,     0.00000,     0.00000,     0.00000,     1.00000,1,     100.00,     76.0,     15.2,     1,     1.0000,,,,,,,
       49,'3', 58.5964, -9.38173, 30.000002, -25.0,1.00000,     0,     100.00,     0.00000,     0.00000,     0.00000,     0.00000,     1.00000,1,     100.00,     76.0,     15.2,     1,     1.0000,,,,,,,
       49,'4', 58.5964, -9.38173, 30.000002, -25.0,1.00000,     0,     100.00,     0.00000,     0.00000,     0.00000,     0.00000,     1.00000,1,     100.00,     76.0,     15.2,     1,     1.0000,,,,,,,
       54,'1', 77.7066, 68.0384, 80.0, -50.0,1.00000,     0,     100.00,     0.00000,     0.00000,     0.00000,     0.00000,     1.00000,1,     100.00,     155.0,     54.25,     1,     1.0000,,,,,,,
       59,'1', 103.26199, 70.4372, 80.0, 0.0,1.00000,     0,     100.00,     0.00000,     0.00000,     0.00000,     0.00000,     1.00000,1,     100.00,     197.0,     68.95,     1,     1.0000,,,,,,,
       59,'2', 6.9870005, 3.3991501, 6.0, 0.0,1.00000,     0,     100.00,     0.00000,     0.00000,     0.00000,     0.00000,     1.00000,1,     100.00,     12.0,     2.4,     1,     1.0000,,,,,,,
       59,'3', 6.9870005, 3.3991501, 6.0, 0.0,1.00000,     0,     100.00,     0.00000,     0.00000,     0.00000,     0.00000,     1.00000,1,     100.00,     12.0,     2.4,     1,     1.0000,,,,,,,
       59,'4', 6.9870005, 3.3991501, 6.0, 0.0,1.00000,     0,     100.00,     0.00000,     0.00000,     0.00000,     0.00000,     1.00000,1,     100.00,     12.0,     2.4,     1,     1.0000,,,,,,,
       59,'5', 6.9870005, 3.3991501, 6.0, 0.0,1.00000,     0,     100.00,     0.00000,     0.00000,     0.00000,     0.00000,     1.00000,1,     100.00,     12.0,     2.4,     1,     1.0000,,,,,,,
       59,'6', 6.9870005, 3.3991501, 6.0, 0.0,1.00000,     0,     100.00,     0.00000,     0.00000,     0.00000,     0.00000,     1.00000,1,     100.00,     12.0,     2.4,     1,     1.0000,,,,,,,
       65,'1', 183.604, 87.491, 150.0, -25.0,1.00000,     0,     100.00,     0.00000,     0.00000,     0.00000,     0.00000,     1.00000,1,     100.00,     350.0,     140.0,     1,     1.0000,,,,,,,
       65,'2', 85.958, 29.9763, 80.0, -50.0,1.00000,     0,     100.00,     0.00000,     0.00000,     0.00000,     0.00000,     1.00000,1,     100.00,     155.0,     54.25,     1,     1.0000,,,,,,,
       66,'1', 38.1194, 1.33353, 16.0, -10.0,1.00000,     0,     100.00,     0.00000,     0.00000,     0.00000,     0.00000,     1.00000,1,     100.00,     50.0,     0.0,     1,     1.0000,,,,,,,
       66,'2', 38.1194, 1.33353, 16.0, -10.0,1.00000,     0,     100.00,     0.00000,     0.00000,     0.00000,     0.00000,     1.00000,1,     100.00,     50.0,     0.0,     1,     1.0000,,,,,,,
       66,'3', 38.1194, 1.33353, 16.0, -10.0,1.00000,     0,     100.00,     0.00000,     0.00000,     0.00000,     0.00000,     1.00000,1,     100.00,     50.0,     0.0,     1,     1.0000,,,,,,,
       66,'4', 38.1194, 1.33353, 16.0, -10.0,1.00000,     0,     100.00,     0.00000,     0.00000,     0.00000,     0.00000,     1.00000,1,     100.00,     50.0,     0.0,     1,     1.0000,,,,,,,
       66,'5', 38.1194, 1.33353, 16.0, -10.0,1.00000,     0,     100.00,     0.00000,     0.00000,     0.00000,     0.00000,     1.00000,1,     100.00,     50.0,     0.0,     1,     1.0000,,,,,,,
       66,'6', 38.1194, 1.33353, 16.0, -10.0,1.00000,     0,     100.00,     0.00000,     0.00000,     0.00000,     0.00000,     1.00000,1,     100.00,     50.0,     0.0,     1,     1.0000,,,,,,,
       66,'7', 38.1194, 1.33353, 16.0, -10.0,1.00000,     0,     100.00,     0.00000,     0.00000,     0.00000,     0.00000,     1.00000,1,     100.00,     50.0,     0.0,     1,     1.0000,,,,,,,
       66,'8', 38.1194, 1.33353, 16.0, -10.0,1.00000,     0,     100.00,     0.00000,     0.00000,     0.00000,     0.00000,     1.00000,1,     100.00,     50.0,     0.0,     1,     1.0000,,,,,,,
       66,'9', 38.1194, 1.33353, 16.0, -10.0,1.00000,     0,     100.00,     0.00000,     0.00000,     0.00000,     0.00000,     1.00000,1,     100.00,     50.0,     0.0,     1,     1.0000,,,,,,,
       66,'10', 38.1194, 1.33353, 16.0, -10.0,1.00000,     0,     100.00,     0.00000,     0.00000,     0.00000,     0.00000,     1.00000,1,     100.00,     50.0,     0.0,     1,     1.0000,,,,,,,
       69,'1', 231.481, 111.833, 200.0, -50.0,1.00000,     0,     100.00,     0.00000,     0.00000,     0.00000,     0.00000,     1.00000,1,     100.00,     400.0,     100.0,     1,     1.0000,,,,,,,
       69,'2', 231.481, 111.833, 200.0, -50.0,1.00000,     0,     100.00,     0.00000,     0.00000,     0.00000,     0.00000,     1.00000,1,     100.00,     400.0,     100.0,     1,     1.0000,,,,,,,
       80,'1', 159.269, 132.779, 150.0, -25.0,1.00000,     0,     100.00,     0.00000,     0.00000,     0.00000,     0.00000,     1.00000,1,     100.00,     350.0,     140.0,     1,     1.0000,,,,,,,
       80,'2', 86.8741, 65.0119, 80.0, 0.0,1.00000,     0,     100.00,     0.00000,     0.00000,     0.00000,     0.00000,     1.00000,1,     100.00,     197.0,     68.95,     1,     1.0000,,,,,,,
       80,'3', 17.593102, 5.71486, 10.0, 0.0,1.00000,     0,     100.00,     0.00000,     0.00000,     0.00000,     0.00000,     1.00000,1,     100.00,     20.0,     15.800001,     1,     1.0000,,,,,,,
       87,'3', 2.72763, -1.30487, 16.0, -10.0,1.00000,     0,     100.00,     0.00000,     0.00000,     0.00000,     0.00000,     1.00000,1,     100.00,     50.0,     0.0,     1,     1.0000,,,,,,,
       87,'4', 2.72763, -1.30487, 16.0, -10.0,1.00000,     0,     100.00,     0.00000,     0.00000,     0.00000,     0.00000,     1.00000,1,     100.00,     50.0,     0.0,     1,     1.0000,,,,,,,
       31,'1', 334.654, 91.571, 150.0, -25.0,1.00000,     0,     100.00,     0.00000,     0.00000,     0.00000,     0.00000,     1.00000,1,     100.00,     350.0,     140.0,     1,     1.0000,,,,,,,
       89,'1', 72.2067, 77.011696, 80.0, 0.0,1.00000,     0,     100.00,     0.00000,     0.00000,     0.00000,     0.00000,     1.00000,1,     100.00,     197.0,     68.95,     1,     1.0000,,,,,,,
       89,'2', 57.4872, 76.9666, 80.0, -50.0,1.00000,     0,     100.00,     0.00000,     0.00000,     0.00000,     0.00000,     1.00000,1,     100.00,     155.0,     54.25,     1,     1.0000,,,,,,,
       90,'1', 17.0548, 7.97634, 10.0, 0.0,1.00000,     0,     100.00,     0.00000,     0.00000,     0.00000,     0.00000,     1.00000,1,     100.00,     20.0,     15.800001,     1,     1.0000,,,,,,,
       90,'2', 17.0548, 7.97634, 10.0, 0.0,1.00000,     0,     100.00,     0.00000,     0.00000,     0.00000,     0.00000,     1.00000,1,     100.00,     20.0,     15.800001,     1,     1.0000,,,,,,,
       90,'3', 17.0548, 7.97634, 10.0, 0.0,1.00000,     0,     100.00,     0.00000,     0.00000,     0.00000,     0.00000,     1.00000,1,     100.00,     20.0,     15.800001,     1,     1.0000,,,,,,,
       90,'4', 17.0548, 7.97634, 10.0, 0.0,1.00000,     0,     100.00,     0.00000,     0.00000,     0.00000,     0.00000,     1.00000,1,     100.00,     20.0,     15.800001,     1,     1.0000,,,,,,,
       90,'5', 17.0548, 7.97634, 10.0, 0.0,1.00000,     0,     100.00,     0.00000,     0.00000,     0.00000,     0.00000,     1.00000,1,     100.00,     20.0,     15.800001,     1,     1.0000,,,,,,,
       100,'1', 186.734, 120.797005, 150.0, -25.0,1.00000,     0,     100.00,     0.00000,     0.00000,     0.00000,     0.00000,     1.00000,1,     100.00,     350.0,     140.0,     1,     1.0000,,,,,,,
       103,'1', 69.374504, 0.20798701, 30.000002, -25.0,1.00000,     0,     100.00,     0.00000,     0.00000,     0.00000,     0.00000,     1.00000,1,     100.00,     76.0,     15.2,     1,     1.0000,,,,,,,
       103,'2', 69.374504, 0.20798701, 30.000002, -25.0,1.00000,     0,     100.00,     0.00000,     0.00000,     0.00000,     0.00000,     1.00000,1,     100.00,     76.0,     15.2,     1,     1.0000,,,,,,,
       111,'1', 18.3193, 6.85559, 10.0, 0.0,1.00000,     0,     100.00,     0.00000,     0.00000,     0.00000,     0.00000,     1.00000,1,     100.00,     20.0,     15.800001,     1,     1.0000,,,,,,,
       111,'2', 18.3193, 6.85559, 10.0, 0.0,1.00000,     0,     100.00,     0.00000,     0.00000,     0.00000,     0.00000,     1.00000,1,     100.00,     20.0,     15.800001,     1,     1.0000,,,,,,,
       111,'3', 18.3193, 6.85559, 10.0, 0.0,1.00000,     0,     100.00,     0.00000,     0.00000,     0.00000,     0.00000,     1.00000,1,     100.00,     20.0,     15.800001,     1,     1.0000,,,,,,,
       111,'4', 18.3193, 6.85559, 10.0, 0.0,1.00000,     0,     100.00,     0.00000,     0.00000,     0.00000,     0.00000,     1.00000,1,     100.00,     20.0,     15.800001,     1,     1.0000,,,,,,,
       111,'5', 18.3193, 6.85559, 10.0, 0.0,1.00000,     0,     100.00,     0.00000,     0.00000,     0.00000,     0.00000,     1.00000,1,     100.00,     20.0,     15.800001,     1,     1.0000,,,,,,,
       111,'6', 9.04821, 3.7503898, 6.0, 0.0,1.00000,     0,     100.00,     0.00000,     0.00000,     0.00000,     0.00000,     1.00000,1,     100.00,     12.0,     2.4,     1,     1.0000,,,,,,,
       111,'7', 9.04821, 3.7503898, 6.0, 0.0,1.00000,     0,     100.00,     0.00000,     0.00000,     0.00000,     0.00000,     1.00000,1,     100.00,     12.0,     2.4,     1,     1.0000,,,,,,,
       111,'8', 9.04821, 3.7503898, 6.0, 0.0,1.00000,     0,     100.00,     0.00000,     0.00000,     0.00000,     0.00000,     1.00000,1,     100.00,     12.0,     2.4,     1,     1.0000,,,,,,,
       17,'1', 0.0, 171.724, 200.0, -50.0,1.00000,     0,     100.00,     0.00000,     0.00000,     0.00000,     0.00000,     1.00000,1,     100.00,     0.0,     0.0,     1,     1.0000,,,,,,,
       5,'1', 0.0, -40.869, 200.0, -50.0,1.00000,     0,     100.00,     0.00000,     0.00000,     0.00000,     0.00000,     1.00000,1,     100.00,     0.0,     0.0,     1,     1.0000,,,,,,,
       15,'2', 0.0, 187.15, 200.0, -50.0,1.00000,     0,     100.00,     0.00000,     0.00000,     0.00000,     0.00000,     1.00000,1,     100.00,     0.0,     0.0,     1,     1.0000,,,,,,,
       40,'1', 0.0, 185.568, 200.0, -50.0,1.00000,     0,     100.00,     0.00000,     0.00000,     0.00000,     0.00000,     1.00000,1,     100.00,     0.0,     0.0,     1,     1.0000,,,,,,,
       103,'3', 0.0, 34.717598, 200.0, -50.0,1.00000,     0,     100.00,     0.00000,     0.00000,     0.00000,     0.00000,     1.00000,1,     100.00,     0.0,     0.0,     1,     1.0000,,,,,,,
       59,'7', 0.0, 189.42601, 200.0, -50.0,1.00000,     0,     100.00,     0.00000,     0.00000,     0.00000,     0.00000,     1.00000,1,     100.00,     0.0,     0.0,     1,     1.0000,,,,,,,
 0 / END OF GENERATOR DATA, BEGIN BRANCH DATA
       1,       2,'1',     0.030299999,     0.0999,     0.0000,     220.0,     0.00,     0.0,     0.00000,     0.00000,     0.00000,     0.00000,1,     0.00,     1,     1.0000,,,,,,,
       1,       3,'1',     0.0128999995,     0.0424,     0.0000,     220.0,     0.00,     0.0,     0.00000,     0.00000,     0.00000,     0.00000,1,     0.00,     1,     1.0000,,,,,,,
       4,       5,'1',     0.0017600001,     0.00798,     0.0000,     220.0,     0.00,     0.0,     0.00000,     0.00000,     0.00000,     0.00000,1,     0.00,     1,     1.0000,,,,,,,
       3,       5,'1',     0.0241,     0.108,     0.0000,     220.0,     0.00,     0.0,     0.00000,     0.00000,     0.00000,     0.00000,1,     0.00,     1,     1.0000,,,,,,,
       5,       6,'1',     0.011900001,     0.054000005,     0.0000,     220.0,     0.00,     0.0,     0.00000,     0.00000,     0.00000,     0.00000,1,     0.00,     1,     1.0000,,,,,,,
       6,       7,'1',     0.0045899996,     0.020799998,     0.0000,     440.0,     0.00,     0.0,     0.00000,     0.00000,     0.00000,     0.00000,1,     0.00,     1,     1.0000,,,,,,,
       8,       9,'1',     0.0024400002,     0.030500002,     0.0000,     220.0,     0.00,     0.0,     0.00000,     0.00000,     0.00000,     0.00000,1,     0.00,     1,     1.0000,,,,,,,
       8,       5,'1',     0.0,     0.026700001,     0.0000,     220.0,     0.00,     0.0,     0.00000,     0.00000,     0.00000,     0.00000,1,     0.00,     1,     1.0000,,,,,,,
       9,       10,'1',     0.0025799999,     0.0322,     0.0000,     220.0,     0.00,     0.0,     0.00000,     0.00000,     0.00000,     0.00000,1,     0.00,     1,     1.0000,,,,,,,
       4,       11,'1',     0.020900002,     0.0688,     0.0000,     220.0,     0.00,     0.0,     0.00000,     0.00000,     0.00000,     0.00000,1,     0.00,     1,     1.0000,,,,,,,
       5,       11,'1',     0.020299999,     0.0682,     0.0000,     220.0,     0.00,     0.0,     0.00000,     0.00000,     0.00000,     0.00000,1,     0.00,     1,     1.0000,,,,,,,
       11,       12,'1',     0.00595,     0.0196,     0.0000,     880.0,     0.00,     0.0,     0.00000,     0.00000,     0.00000,     0.00000,1,     0.00,     1,     1.0000,,,,,,,
       2,       12,'1',     0.0187,     0.0616,     0.0000,     1100.0,     0.00,     0.0,     0.00000,     0.00000,     0.00000,     0.00000,1,     0.00,     1,     1.0000,,,,,,,
       3,       12,'1',     0.048400003,     0.16000001,     0.0000,     220.0,     0.00,     0.0,     0.00000,     0.00000,     0.00000,     0.00000,1,     0.00,     1,     1.0000,,,,,,,
       7,       12,'1',     0.0086199995,     0.033999998,     0.0000,     1100.0,     0.00,     0.0,     0.00000,     0.00000,     0.00000,     0.00000,1,     0.00,     1,     1.0000,,,,,,,
       11,       13,'1',     0.022250002,     0.07310001,     0.0000,     220.0,     0.00,     0.0,     0.00000,     0.00000,     0.00000,     0.00000,1,     0.00,     1,     1.0000,,,,,,,
       12,       14,'1',     0.021499999,     0.0707,     0.0000,     220.0,     0.00,     0.0,     0.00000,     0.00000,     0.00000,     0.00000,1,     0.00,     1,     1.0000,,,,,,,
       13,       15,'1',     0.07439999,     0.2444,     0.0000,     220.0,     0.00,     0.0,     0.00000,     0.00000,     0.00000,     0.00000,1,     0.00,     1,     1.0000,,,,,,,
       14,       15,'1',     0.059499998,     0.19500001,     0.0000,     220.0,     0.00,     0.0,     0.00000,     0.00000,     0.00000,     0.00000,1,     0.00,     1,     1.0000,,,,,,,
       12,       16,'1',     0.021200001,     0.0834,     0.0000,     220.0,     0.00,     0.0,     0.00000,     0.00000,     0.00000,     0.00000,1,     0.00,     1,     1.0000,,,,,,,
       15,       17,'1',     0.013200001,     0.043700002,     0.0000,     220.0,     0.00,     0.0,     0.00000,     0.00000,     0.00000,     0.00000,1,     0.00,     1,     1.0000,,,,,,,
       16,       17,'1',     0.0454,     0.18010001,     0.0000,     220.0,     0.00,     0.0,     0.00000,     0.00000,     0.00000,     0.00000,1,     0.00,     1,     1.0000,,,,,,,
       17,       18,'1',     0.0123000005,     0.0505,     0.0000,     440.0,     0.00,     0.0,     0.00000,     0.00000,     0.00000,     0.00000,1,     0.00,     1,     1.0000,,,,,,,
       18,       19,'1',     0.011189999,     0.0493,     0.0000,     220.0,     0.00,     0.0,     0.00000,     0.00000,     0.00000,     0.00000,1,     0.00,     1,     1.0000,,,,,,,
       19,       20,'1',     0.025199998,     0.11699999,     0.0000,     220.0,     0.00,     0.0,     0.00000,     0.00000,     0.00000,     0.00000,1,     0.00,     1,     1.0000,,,,,,,
       15,       19,'1',     0.011999999,     0.039399996,     0.0000,     220.0,     0.00,     0.0,     0.00000,     0.00000,     0.00000,     0.00000,1,     0.00,     1,     1.0000,,,,,,,
       20,       21,'1',     0.018299999,     0.0849,     0.0000,     220.0,     0.00,     0.0,     0.00000,     0.00000,     0.00000,     0.00000,1,     0.00,     1,     1.0000,,,,,,,
       21,       22,'1',     0.020900002,     0.097,     0.0000,     220.0,     0.00,     0.0,     0.00000,     0.00000,     0.00000,     0.00000,1,     0.00,     1,     1.0000,,,,,,,
       22,       23,'1',     0.0342,     0.15900001,     0.0000,     220.0,     0.00,     0.0,     0.00000,     0.00000,     0.00000,     0.00000,1,     0.00,     1,     1.0000,,,,,,,
       23,       24,'1',     0.013499999,     0.049200002,     0.0000,     220.0,     0.00,     0.0,     0.00000,     0.00000,     0.00000,     0.00000,1,     0.00,     1,     1.0000,,,,,,,
       23,       25,'1',     0.015600001,     0.080000006,     0.0000,     220.0,     0.00,     0.0,     0.00000,     0.00000,     0.00000,     0.00000,1,     0.00,     1,     1.0000,,,,,,,
       26,       25,'1',     0.0,     0.0382,     0.0000,     220.0,     0.00,     0.0,     0.00000,     0.00000,     0.00000,     0.00000,1,     0.00,     1,     1.0000,,,,,,,
       25,       27,'1',     0.031799998,     0.163,     0.0000,     220.0,     0.00,     0.0,     0.00000,     0.00000,     0.00000,     0.00000,1,     0.00,     1,     1.0000,,,,,,,
       27,       28,'1',     0.019130003,     0.08550001,     0.0000,     220.0,     0.00,     0.0,     0.00000,     0.00000,     0.00000,     0.00000,1,     0.00,     1,     1.0000,,,,,,,
       28,       29,'1',     0.023699997,     0.094299994,     0.0000,     220.0,     0.00,     0.0,     0.00000,     0.00000,     0.00000,     0.00000,1,     0.00,     1,     1.0000,,,,,,,
       30,       17,'1',     0.0,     0.0388,     0.0000,     220.0,     0.00,     0.0,     0.00000,     0.00000,     0.00000,     0.00000,1,     0.00,     1,     1.0000,,,,,,,
       8,       30,'1',     0.0043099998,     0.0504,     0.0000,     440.0,     0.00,     0.0,     0.00000,     0.00000,     0.00000,     0.00000,1,     0.00,     1,     1.0000,,,,,,,
       26,       30,'1',     0.00799,     0.086,     0.0000,     220.0,     0.00,     0.0,     0.00000,     0.00000,     0.00000,     0.00000,1,     0.00,     1,     1.0000,,,,,,,
       17,       31,'1',     0.0474,     0.15630001,     0.0000,     220.0,     0.00,     0.0,     0.00000,     0.00000,     0.00000,     0.00000,1,     0.00,     1,     1.0000,,,,,,,
       29,       31,'1',     0.0108,     0.0331,     0.0000,     220.0,     0.00,     0.0,     0.00000,     0.00000,     0.00000,     0.00000,1,     0.00,     1,     1.0000,,,,,,,
       23,       32,'1',     0.031700004,     0.11530001,     0.0000,     440.0,     0.00,     0.0,     0.00000,     0.00000,     0.00000,     0.00000,1,     0.00,     1,     1.0000,,,,,,,
       31,       32,'1',     0.0298,     0.098500006,     0.0000,     220.0,     0.00,     0.0,     0.00000,     0.00000,     0.00000,     0.00000,1,     0.00,     1,     1.0000,,,,,,,
       27,       32,'1',     0.0229,     0.075500004,     0.0000,     660.0,     0.00,     0.0,     0.00000,     0.00000,     0.00000,     0.00000,1,     0.00,     1,     1.0000,,,,,,,
       15,       33,'1',     0.038000003,     0.124400005,     0.0000,     220.0,     0.00,     0.0,     0.00000,     0.00000,     0.00000,     0.00000,1,     0.00,     1,     1.0000,,,,,,,
       19,       34,'1',     0.0752,     0.24699998,     0.0000,     220.0,     0.00,     0.0,     0.00000,     0.00000,     0.00000,     0.00000,1,     0.00,     1,     1.0000,,,,,,,
       35,       36,'1',     0.00224,     0.0102,     0.0000,     220.0,     0.00,     0.0,     0.00000,     0.00000,     0.00000,     0.00000,1,     0.00,     1,     1.0000,,,,,,,
       35,       37,'1',     0.011000001,     0.049700003,     0.0000,     220.0,     0.00,     0.0,     0.00000,     0.00000,     0.00000,     0.00000,1,     0.00,     1,     1.0000,,,,,,,
       33,       37,'1',     0.0415,     0.142,     0.0000,     220.0,     0.00,     0.0,     0.00000,     0.00000,     0.00000,     0.00000,1,     0.00,     1,     1.0000,,,,,,,
       34,       36,'1',     0.008710002,     0.026800003,     0.0000,     220.0,     0.00,     0.0,     0.00000,     0.00000,     0.00000,     0.00000,1,     0.00,     1,     1.0000,,,,,,,
       34,       37,'1',     0.0025600002,     0.0094,     0.0000,     660.0,     0.00,     0.0,     0.00000,     0.00000,     0.00000,     0.00000,1,     0.00,     1,     1.0000,,,,,,,
       38,       37,'1',     0.0,     0.0375,     0.0000,     220.0,     0.00,     0.0,     0.00000,     0.00000,     0.00000,     0.00000,1,     0.00,     1,     1.0000,,,,,,,
       37,       39,'1',     0.032099996,     0.10599999,     0.0000,     220.0,     0.00,     0.0,     0.00000,     0.00000,     0.00000,     0.00000,1,     0.00,     1,     1.0000,,,,,,,
       37,       40,'1',     0.0593,     0.168,     0.0000,     220.0,     0.00,     0.0,     0.00000,     0.00000,     0.00000,     0.00000,1,     0.00,     1,     1.0000,,,,,,,
       30,       38,'1',     0.0046400004,     0.054,     0.0000,     220.0,     0.00,     0.0,     0.00000,     0.00000,     0.00000,     0.00000,1,     0.00,     1,     1.0000,,,,,,,
       39,       40,'1',     0.0184,     0.0605,     0.0000,     220.0,     0.00,     0.0,     0.00000,     0.00000,     0.00000,     0.00000,1,     0.00,     1,     1.0000,,,,,,,
       40,       41,'1',     0.0145,     0.0487,     0.0000,     220.0,     0.00,     0.0,     0.00000,     0.00000,     0.00000,     0.00000,1,     0.00,     1,     1.0000,,,,,,,
       40,       42,'1',     0.055499997,     0.183,     0.0000,     440.0,     0.00,     0.0,     0.00000,     0.00000,     0.00000,     0.00000,1,     0.00,     1,     1.0000,,,,,,,
       41,       42,'1',     0.041,     0.135,     0.0000,     220.0,     0.00,     0.0,     0.00000,     0.00000,     0.00000,     0.00000,1,     0.00,     1,     1.0000,,,,,,,
       43,       44,'1',     0.0608,     0.24540001,     0.0000,     220.0,     0.00,     0.0,     0.00000,     0.00000,     0.00000,     0.00000,1,     0.00,     1,     1.0000,,,,,,,
       34,       43,'1',     0.041299995,     0.16809998,     0.0000,     220.0,     0.00,     0.0,     0.00000,     0.00000,     0.00000,     0.00000,1,     0.00,     1,     1.0000,,,,,,,
       44,       45,'1',     0.022400001,     0.090100005,     0.0000,     220.0,     0.00,     0.0,     0.00000,     0.00000,     0.00000,     0.00000,1,     0.00,     1,     1.0000,,,,,,,
       45,       46,'1',     0.04,     0.1356,     0.0000,     220.0,     0.00,     0.0,     0.00000,     0.00000,     0.00000,     0.00000,1,     0.00,     1,     1.0000,,,,,,,
       46,       47,'1',     0.038000003,     0.127,     0.0000,     660.0,     0.00,     0.0,     0.00000,     0.00000,     0.00000,     0.00000,1,     0.00,     1,     1.0000,,,,,,,
       46,       48,'1',     0.060099997,     0.189,     0.0000,     440.0,     0.00,     0.0,     0.00000,     0.00000,     0.00000,     0.00000,1,     0.00,     1,     1.0000,,,,,,,
       47,       49,'1',     0.0191,     0.0625,     0.0000,     220.0,     0.00,     0.0,     0.00000,     0.00000,     0.00000,     0.00000,1,     0.00,     1,     1.0000,,,,,,,
       42,       49,'1',     0.071499996,     0.32299998,     0.0000,     220.0,     0.00,     0.0,     0.00000,     0.00000,     0.00000,     0.00000,1,     0.00,     1,     1.0000,,,,,,,
       42,       49,'2',     0.071499996,     0.32299998,     0.0000,     220.0,     0.00,     0.0,     0.00000,     0.00000,     0.00000,     0.00000,1,     0.00,     1,     1.0000,,,,,,,
       45,       49,'1',     0.0684,     0.186,     0.0000,     220.0,     0.00,     0.0,     0.00000,     0.00000,     0.00000,     0.00000,1,     0.00,     1,     1.0000,,,,,,,
       48,       49,'1',     0.017899998,     0.050499994,     0.0000,     220.0,     0.00,     0.0,     0.00000,     0.00000,     0.00000,     0.00000,1,     0.00,     1,     1.0000,,,,,,,
       49,       50,'1',     0.0267,     0.0752,     0.0000,     220.0,     0.00,     0.0,     0.00000,     0.00000,     0.00000,     0.00000,1,     0.00,     1,     1.0000,,,,,,,
       49,       51,'1',     0.048599996,     0.137,     0.0000,     220.0,     0.00,     0.0,     0.00000,     0.00000,     0.00000,     0.00000,1,     0.00,     1,     1.0000,,,,,,,
       51,       52,'1',     0.020299999,     0.0588,     0.0000,     220.0,     0.00,     0.0,     0.00000,     0.00000,     0.00000,     0.00000,1,     0.00,     1,     1.0000,,,,,,,
       52,       53,'1',     0.040499996,     0.16349998,     0.0000,     220.0,     0.00,     0.0,     0.00000,     0.00000,     0.00000,     0.00000,1,     0.00,     1,     1.0000,,,,,,,
       53,       54,'1',     0.0263,     0.122,     0.0000,     220.0,     0.00,     0.0,     0.00000,     0.00000,     0.00000,     0.00000,1,     0.00,     1,     1.0000,,,,,,,
       49,       54,'1',     0.07299999,     0.289,     0.0000,     220.0,     0.00,     0.0,     0.00000,     0.00000,     0.00000,     0.00000,1,     0.00,     1,     1.0000,,,,,,,
       49,       54,'2',     0.0869,     0.291,     0.0000,     220.0,     0.00,     0.0,     0.00000,     0.00000,     0.00000,     0.00000,1,     0.00,     1,     1.0000,,,,,,,
       54,       55,'1',     0.016900001,     0.070700005,     0.0000,     220.0,     0.00,     0.0,     0.00000,     0.00000,     0.00000,     0.00000,1,     0.00,     1,     1.0000,,,,,,,
       54,       56,'1',     0.0027499998,     0.00955,     0.0000,     220.0,     0.00,     0.0,     0.00000,     0.00000,     0.00000,     0.00000,1,     0.00,     1,     1.0000,,,,,,,
       55,       56,'1',     0.00488,     0.0151,     0.0000,     220.0,     0.00,     0.0,     0.00000,     0.00000,     0.00000,     0.00000,1,     0.00,     1,     1.0000,,,,,,,
       56,       57,'1',     0.0343,     0.096599996,     0.0000,     220.0,     0.00,     0.0,     0.00000,     0.00000,     0.00000,     0.00000,1,     0.00,     1,     1.0000,,,,,,,
       50,       57,'1',     0.047399998,     0.134,     0.0000,     220.0,     0.00,     0.0,     0.00000,     0.00000,     0.00000,     0.00000,1,     0.00,     1,     1.0000,,,,,,,
       56,       58,'1',     0.0343,     0.096599996,     0.0000,     220.0,     0.00,     0.0,     0.00000,     0.00000,     0.00000,     0.00000,1,     0.00,     1,     1.0000,,,,,,,
       51,       58,'1',     0.025500001,     0.0719,     0.0000,     220.0,     0.00,     0.0,     0.00000,     0.00000,     0.00000,     0.00000,1,     0.00,     1,     1.0000,,,,,,,
       54,       59,'1',     0.050299995,     0.22929999,     0.0000,     440.0,     0.00,     0.0,     0.00000,     0.00000,     0.00000,     0.00000,1,     0.00,     1,     1.0000,,,,,,,
       56,       59,'1',     0.08249999,     0.251,     0.0000,     440.0,     0.00,     0.0,     0.00000,     0.00000,     0.00000,     0.00000,1,     0.00,     1,     1.0000,,,,,,,
       56,       59,'2',     0.080299996,     0.239,     0.0000,     220.0,     0.00,     0.0,     0.00000,     0.00000,     0.00000,     0.00000,1,     0.00,     1,     1.0000,,,,,,,
       55,       59,'1',     0.047389995,     0.21579999,     0.0000,     220.0,     0.00,     0.0,     0.00000,     0.00000,     0.00000,     0.00000,1,     0.00,     1,     1.0000,,,,,,,
       59,       60,'1',     0.031700004,     0.14500001,     0.0000,     220.0,     0.00,     0.0,     0.00000,     0.00000,     0.00000,     0.00000,1,     0.00,     1,     1.0000,,,,,,,
       59,       61,'1',     0.0328,     0.15,     0.0000,     220.0,     0.00,     0.0,     0.00000,     0.00000,     0.00000,     0.00000,1,     0.00,     1,     1.0000,,,,,,,
       60,       61,'1',     0.0026399998,     0.013499999,     0.0000,     220.0,     0.00,     0.0,     0.00000,     0.00000,     0.00000,     0.00000,1,     0.00,     1,     1.0000,,,,,,,
       60,       62,'1',     0.0123,     0.056099996,     0.0000,     220.0,     0.00,     0.0,     0.00000,     0.00000,     0.00000,     0.00000,1,     0.00,     1,     1.0000,,,,,,,
       61,       62,'1',     0.00824,     0.037600003,     0.0000,     220.0,     0.00,     0.0,     0.00000,     0.00000,     0.00000,     0.00000,1,     0.00,     1,     1.0000,,,,,,,
       63,       59,'1',     0.0,     0.038599998,     0.0000,     220.0,     0.00,     0.0,     0.00000,     0.00000,     0.00000,     0.00000,1,     0.00,     1,     1.0000,,,,,,,
       63,       64,'1',     0.0017200001,     0.02,     0.0000,     220.0,     0.00,     0.0,     0.00000,     0.00000,     0.00000,     0.00000,1,     0.00,     1,     1.0000,,,,,,,
       64,       61,'1',     0.0,     0.0268,     0.0000,     220.0,     0.00,     0.0,     0.00000,     0.00000,     0.00000,     0.00000,1,     0.00,     1,     1.0000,,,,,,,
       38,       65,'1',     0.00901,     0.0986,     0.0000,     220.0,     0.00,     0.0,     0.00000,     0.00000,     0.00000,     0.00000,1,     0.00,     1,     1.0000,,,,,,,
       64,       65,'1',     0.00269,     0.030199999,     0.0000,     220.0,     0.00,     0.0,     0.00000,     0.00000,     0.00000,     0.00000,1,     0.00,     1,     1.0000,,,,,,,
       49,       66,'1',     0.018000001,     0.0919,     0.0000,     220.0,     0.00,     0.0,     0.00000,     0.00000,     0.00000,     0.00000,1,     0.00,     1,     1.0000,,,,,,,
       49,       66,'2',     0.018000001,     0.0919,     0.0000,     220.0,     0.00,     0.0,     0.00000,     0.00000,     0.00000,     0.00000,1,     0.00,     1,     1.0000,,,,,,,
       62,       66,'1',     0.048199996,     0.218,     0.0000,     220.0,     0.00,     0.0,     0.00000,     0.00000,     0.00000,     0.00000,1,     0.00,     1,     1.0000,,,,,,,
       62,       67,'1',     0.025799997,     0.11699999,     0.0000,     220.0,     0.00,     0.0,     0.00000,     0.00000,     0.00000,     0.00000,1,     0.00,     1,     1.0000,,,,,,,
       65,       66,'1',     0.0,     0.037,     0.0000,     220.0,     0.00,     0.0,     0.00000,     0.00000,     0.00000,     0.00000,1,     0.00,     1,     1.0000,,,,,,,
       66,       67,'1',     0.0224,     0.1015,     0.0000,     440.0,     0.00,     0.0,     0.00000,     0.00000,     0.00000,     0.00000,1,     0.00,     1,     1.0000,,,,,,,
       65,       68,'1',     0.0013800001,     0.016,     0.0000,     220.0,     0.00,     0.0,     0.00000,     0.00000,     0.00000,     0.00000,1,     0.00,     1,     1.0000,,,,,,,
       47,       69,'1',     0.08439999,     0.2778,     0.0000,     220.0,     0.00,     0.0,     0.00000,     0.00000,     0.00000,     0.00000,1,     0.00,     1,     1.0000,,,,,,,
       49,       69,'1',     0.098500006,     0.324,     0.0000,     220.0,     0.00,     0.0,     0.00000,     0.00000,     0.00000,     0.00000,1,     0.00,     1,     1.0000,,,,,,,
       68,       69,'1',     0.0,     0.037,     0.0000,     220.0,     0.00,     0.0,     0.00000,     0.00000,     0.00000,     0.00000,1,     0.00,     1,     1.0000,,,,,,,
       69,       70,'1',     0.03,     0.127,     0.0000,     440.0,     0.00,     0.0,     0.00000,     0.00000,     0.00000,     0.00000,1,     0.00,     1,     1.0000,,,,,,,
       24,       70,'1',     0.00221,     0.4115,     0.0000,     440.0,     0.00,     0.0,     0.00000,     0.00000,     0.00000,     0.00000,1,     0.00,     1,     1.0000,,,,,,,
       70,       71,'1',     0.00882,     0.0355,     0.0000,     220.0,     0.00,     0.0,     0.00000,     0.00000,     0.00000,     0.00000,1,     0.00,     1,     1.0000,,,,,,,
       24,       72,'1',     0.048800003,     0.19600001,     0.0000,     440.0,     0.00,     0.0,     0.00000,     0.00000,     0.00000,     0.00000,1,     0.00,     1,     1.0000,,,,,,,
       71,       72,'1',     0.0446,     0.17999999,     0.0000,     220.0,     0.00,     0.0,     0.00000,     0.00000,     0.00000,     0.00000,1,     0.00,     1,     1.0000,,,,,,,
       71,       73,'1',     0.00866,     0.0454,     0.0000,     220.0,     0.00,     0.0,     0.00000,     0.00000,     0.00000,     0.00000,1,     0.00,     1,     1.0000,,,,,,,
       70,       74,'1',     0.0401,     0.13229999,     0.0000,     220.0,     0.00,     0.0,     0.00000,     0.00000,     0.00000,     0.00000,1,     0.00,     1,     1.0000,,,,,,,
       70,       75,'1',     0.042799998,     0.14099999,     0.0000,     440.0,     0.00,     0.0,     0.00000,     0.00000,     0.00000,     0.00000,1,     0.00,     1,     1.0000,,,,,,,
       69,       75,'1',     0.040499996,     0.122,     0.0000,     220.0,     0.00,     0.0,     0.00000,     0.00000,     0.00000,     0.00000,1,     0.00,     1,     1.0000,,,,,,,
       74,       75,'1',     0.0123000005,     0.0406,     0.0000,     440.0,     0.00,     0.0,     0.00000,     0.00000,     0.00000,     0.00000,1,     0.00,     1,     1.0000,,,,,,,
       76,       77,'1',     0.044400003,     0.148,     0.0000,     440.0,     0.00,     0.0,     0.00000,     0.00000,     0.00000,     0.00000,1,     0.00,     1,     1.0000,,,,,,,
       69,       77,'1',     0.030899998,     0.10099999,     0.0000,     440.0,     0.00,     0.0,     0.00000,     0.00000,     0.00000,     0.00000,1,     0.00,     1,     1.0000,,,,,,,
       75,       77,'1',     0.0601,     0.1999,     0.0000,     220.0,     0.00,     0.0,     0.00000,     0.00000,     0.00000,     0.00000,1,     0.00,     1,     1.0000,,,,,,,
       77,       78,'1',     0.0037600002,     0.0124,     0.0000,     220.0,     0.00,     0.0,     0.00000,     0.00000,     0.00000,     0.00000,1,     0.00,     1,     1.0000,,,,,,,
       78,       79,'1',     0.00546,     0.0244,     0.0000,     220.0,     0.00,     0.0,     0.00000,     0.00000,     0.00000,     0.00000,1,     0.00,     1,     1.0000,,,,,,,
       77,       80,'1',     0.017,     0.0485,     0.0000,     220.0,     0.00,     0.0,     0.00000,     0.00000,     0.00000,     0.00000,1,     0.00,     1,     1.0000,,,,,,,
       77,       80,'2',     0.0294,     0.105,     0.0000,     220.0,     0.00,     0.0,     0.00000,     0.00000,     0.00000,     0.00000,1,     0.00,     1,     1.0000,,,,,,,
       79,       80,'1',     0.0156000005,     0.0704,     0.0000,     220.0,     0.00,     0.0,     0.00000,     0.00000,     0.00000,     0.00000,1,     0.00,     1,     1.0000,,,,,,,
       68,       81,'1',     0.0017499998,     0.0202,     0.0000,     220.0,     0.00,     0.0,     0.00000,     0.00000,     0.00000,     0.00000,1,     0.00,     1,     1.0000,,,,,,,
       81,       80,'1',     0.0,     0.037,     0.0000,     220.0,     0.00,     0.0,     0.00000,     0.00000,     0.00000,     0.00000,1,     0.00,     1,     1.0000,,,,,,,
       77,       82,'1',     0.029800003,     0.085300006,     0.0000,     220.0,     0.00,     0.0,     0.00000,     0.00000,     0.00000,     0.00000,1,     0.00,     1,     1.0000,,,,,,,
       82,       83,'1',     0.0112000005,     0.036650002,     0.0000,     220.0,     0.00,     0.0,     0.00000,     0.00000,     0.00000,     0.00000,1,     0.00,     1,     1.0000,,,,,,,
       83,       84,'1',     0.0625,     0.132,     0.0000,     220.0,     0.00,     0.0,     0.00000,     0.00000,     0.00000,     0.00000,1,     0.00,     1,     1.0000,,,,,,,
       83,       85,'1',     0.042999998,     0.148,     0.0000,     220.0,     0.00,     0.0,     0.00000,     0.00000,     0.00000,     0.00000,1,     0.00,     1,     1.0000,,,,,,,
       84,       85,'1',     0.0302,     0.0641,     0.0000,     440.0,     0.00,     0.0,     0.00000,     0.00000,     0.00000,     0.00000,1,     0.00,     1,     1.0000,,,,,,,
       85,       86,'1',     0.034999996,     0.122999996,     0.0000,     220.0,     0.00,     0.0,     0.00000,     0.00000,     0.00000,     0.00000,1,     0.00,     1,     1.0000,,,,,,,
       86,       87,'1',     0.028280003,     0.20740001,     0.0000,     220.0,     0.00,     0.0,     0.00000,     0.00000,     0.00000,     0.00000,1,     0.00,     1,     1.0000,,,,,,,
       85,       88,'1',     0.02,     0.102,     0.0000,     220.0,     0.00,     0.0,     0.00000,     0.00000,     0.00000,     0.00000,1,     0.00,     1,     1.0000,,,,,,,
       85,       89,'1',     0.023900002,     0.17300002,     0.0000,     220.0,     0.00,     0.0,     0.00000,     0.00000,     0.00000,     0.00000,1,     0.00,     1,     1.0000,,,,,,,
       88,       89,'1',     0.013900001,     0.071200006,     0.0000,     220.0,     0.00,     0.0,     0.00000,     0.00000,     0.00000,     0.00000,1,     0.00,     1,     1.0000,,,,,,,
...